psse/psse-converter/src/test/resources/two_area_case_trf3w.xiidm
<?xml version="1.0" encoding="UTF-8"?>
<iidm:network xmlns:iidm="http://www.powsybl.org/schema/iidm/1_18" xmlns:slt="http://www.powsybl.org/schema/iidm/ext/slack_terminal/1_5" id="two_area_case_trf3w" caseDate="2016-01-01T10:00:00.000+02:00" forecastDistance="0" sourceFormat="PSS/E" minimumValidationLevel="STEADY_STATE_HYPOTHESIS">
    <iidm:substation id="S1">
        <iidm:voltageLevel id="VL1" nominalV="400.0" topologyKind="BUS_BREAKER">
            <iidm:busBreakerTopology>
                <iidm:bus id="B1" name="Bus 1       " v="424.0" angle="0.0"/>
            </iidm:busBreakerTopology>
            <iidm:generator id="B1-G1 " energySource="OTHER" minP="-10000.0" maxP="10000.0" targetP="232.392" localTargetV="424.0" localTargetQ="-16.549" bus="B1" connectableBus="B1">
                <iidm:minMaxReactiveLimits minQ="0.0" maxQ="0.0"/>
            </iidm:generator>
        </iidm:voltageLevel>
    </iidm:substation>
    <iidm:substation id="S2">
        <iidm:voltageLevel id="VL2" nominalV="400.0" topologyKind="BUS_BREAKER">
            <iidm:busBreakerTopology>
                <iidm:bus id="B2" name="Bus 2       " v="418.0" angle="-4.9826"/>
            </iidm:busBreakerTopology>
            <iidm:generator id="B2-G1 " energySource="OTHER" minP="-10000.0" maxP="10000.0" targetP="40.0" localTargetV="418.0" localTargetQ="43.556" bus="B2" connectableBus="B2">
                <iidm:minMaxReactiveLimits minQ="-40.0" maxQ="50.0"/>
                <iidm:voltageRegulation mode="VOLTAGE" regulating="true"/>
            </iidm:generator>
            <iidm:load id="B2-L1 " loadType="UNDEFINED" p0="21.7" q0="12.7" bus="B2" connectableBus="B2"/>
        </iidm:voltageLevel>
    </iidm:substation>
    <iidm:substation id="S3">
        <iidm:voltageLevel id="VL3" nominalV="400.0" topologyKind="BUS_BREAKER">
            <iidm:busBreakerTopology>
                <iidm:bus id="B3" name="Bus 3       " v="404.0" angle="-12.725"/>
            </iidm:busBreakerTopology>
            <iidm:generator id="B3-G1 " energySource="OTHER" minP="-10000.0" maxP="10000.0" targetP="0.0" localTargetV="404.0" localTargetQ="25.075" bus="B3" connectableBus="B3">
                <iidm:minMaxReactiveLimits minQ="0.0" maxQ="40.0"/>
                <iidm:voltageRegulation mode="VOLTAGE" regulating="true"/>
            </iidm:generator>
            <iidm:load id="B3-L1 " loadType="UNDEFINED" p0="94.2" q0="19.0" bus="B3" connectableBus="B3"/>
        </iidm:voltageLevel>
    </iidm:substation>
    <iidm:substation id="S4-8-9">
        <iidm:voltageLevel id="VL4" nominalV="400.0" topologyKind="BUS_BREAKER">
            <iidm:busBreakerTopology>
                <iidm:bus id="B4" name="Bus 4       " v="407.06800000000004" angle="-10.3128"/>
            </iidm:busBreakerTopology>
            <iidm:load id="B4-L1 " loadType="UNDEFINED" p0="47.8" q0="-3.9" bus="B4" connectableBus="B4"/>
        </iidm:voltageLevel>
        <iidm:voltageLevel id="VL8-9" nominalV="110.0" topologyKind="BUS_BREAKER">
            <iidm:busBreakerTopology>
                <iidm:bus id="B8" name="Bus 8       " v="119.9" angle="-13.3596"/>
                <iidm:bus id="B9" name="Bus 9       " v="116.1523" angle="-14.9385"/>
            </iidm:busBreakerTopology>
            <iidm:generator id="B8-G1 " energySource="OTHER" minP="-10000.0" maxP="10000.0" targetP="0.0" localTargetV="119.9" localTargetQ="17.623" bus="B8" connectableBus="B8">
                <iidm:minMaxReactiveLimits minQ="-6.0" maxQ="24.0"/>
                <iidm:voltageRegulation mode="VOLTAGE" regulating="true"/>
            </iidm:generator>
            <iidm:load id="B9-L1 " loadType="UNDEFINED" p0="29.5" q0="16.6" bus="B9" connectableBus="B9"/>
            <iidm:shuntCompensator id="B9-SH 1" sectionCount="1" bus="B9" connectableBus="B9">
                <iidm:shuntLinearModel bPerSection="0.0015702479338842975" gPerSection="0.0" maximumSectionCount="1"/>
            </iidm:shuntCompensator>
        </iidm:voltageLevel>
        <iidm:threeWindingsTransformer id="T-4-9-8-1 " r1="0.0" x1="0.0029457500000000005" ratedU1="400.0" r2="0.0" x2="0.0026160500000000004" ratedU2="110.0" r3="0.0" x3="2.455500000000005E-4" ratedU3="110.0" ratedU0="1.0" voltageLevelId1="VL4" bus1="B4" connectableBus1="B4" voltageLevelId2="VL8-9" bus2="B9" connectableBus2="B9" voltageLevelId3="VL8-9" bus3="B8" connectableBus3="B8">
            <iidm:property name="v" value="1.06152"/>
            <iidm:property name="angle" value="-13.3596"/>
            <iidm:ratioTapChanger1 tapPosition="0" loadTapChangingCapabilities="false">
                <iidm:step g="-6.1039000000000065" b="-6.1039000000000065" rho="1.0319917440660475"/>
            </iidm:ratioTapChanger1>
            <iidm:ratioTapChanger2 tapPosition="0" loadTapChangingCapabilities="false">
                <iidm:step rho="1.0319917440660475"/>
            </iidm:ratioTapChanger2>
        </iidm:threeWindingsTransformer>
    </iidm:substation>
    <iidm:substation id="S5-6">
        <iidm:voltageLevel id="VL5" nominalV="400.0" topologyKind="BUS_BREAKER">
            <iidm:busBreakerTopology>
                <iidm:bus id="B5" name="Bus 5       " v="407.804" angle="-8.7738"/>
            </iidm:busBreakerTopology>
            <iidm:load id="B5-L1 " loadType="UNDEFINED" p0="7.6" q0="1.6" bus="B5" connectableBus="B5"/>
        </iidm:voltageLevel>
        <iidm:voltageLevel id="VL6" nominalV="110.0" topologyKind="BUS_BREAKER">
            <iidm:busBreakerTopology>
                <iidm:bus id="B6" name="Bus 6       " v="117.7" angle="-14.2209"/>
            </iidm:busBreakerTopology>
            <iidm:generator id="B6-G1 " energySource="OTHER" minP="-10000.0" maxP="10000.0" targetP="0.0" localTargetV="117.7" localTargetQ="12.73" bus="B6" connectableBus="B6">
                <iidm:minMaxReactiveLimits minQ="-6.0" maxQ="24.0"/>
                <iidm:voltageRegulation mode="VOLTAGE" regulating="true"/>
            </iidm:generator>
            <iidm:load id="B6-L1 " loadType="UNDEFINED" p0="11.2" q0="7.5" bus="B6" connectableBus="B6"/>
        </iidm:voltageLevel>
        <iidm:twoWindingsTransformer id="T-5-6-1 " r="0.0" x="30.49442" ratedU1="400.0" ratedU2="110.0" voltageLevelId1="VL5" bus1="B5" connectableBus1="B5" voltageLevelId2="VL6" bus2="B6" connectableBus2="B6">
            <iidm:ratioTapChanger tapPosition="0" loadTapChangingCapabilities="false">
                <iidm:step g="-13.137599999999994" b="-13.137599999999994" rho="1.0729613733905579"/>
            </iidm:ratioTapChanger>
        </iidm:twoWindingsTransformer>
    </iidm:substation>
    <iidm:substation id="S10">
        <iidm:voltageLevel id="VL10" nominalV="110.0" topologyKind="BUS_BREAKER">
            <iidm:busBreakerTopology>
                <iidm:bus id="B10" name="Bus 10      " v="115.6089" angle="-15.0972"/>
            </iidm:busBreakerTopology>
            <iidm:load id="B10-L1 " loadType="UNDEFINED" p0="9.0" q0="5.8" bus="B10" connectableBus="B10"/>
        </iidm:voltageLevel>
    </iidm:substation>
    <iidm:substation id="S11">
        <iidm:voltageLevel id="VL11" nominalV="110.0" topologyKind="BUS_BREAKER">
            <iidm:busBreakerTopology>
                <iidm:bus id="B11" name="Bus 11      " v="116.26010000000001" angle="-14.7906"/>
            </iidm:busBreakerTopology>
            <iidm:load id="B11-L1 " loadType="UNDEFINED" p0="3.5" q0="1.8" bus="B11" connectableBus="B11"/>
        </iidm:voltageLevel>
    </iidm:substation>
    <iidm:substation id="S12">
        <iidm:voltageLevel id="VL12" nominalV="110.0" topologyKind="BUS_BREAKER">
            <iidm:busBreakerTopology>
                <iidm:bus id="B12" name="Bus 12      " v="116.07090000000001" angle="-15.0755"/>
            </iidm:busBreakerTopology>
            <iidm:load id="B12-L1 " loadType="UNDEFINED" p0="6.1" q0="1.6" bus="B12" connectableBus="B12"/>
        </iidm:voltageLevel>
    </iidm:substation>
    <iidm:substation id="S13">
        <iidm:voltageLevel id="VL13" nominalV="110.0" topologyKind="BUS_BREAKER">
            <iidm:busBreakerTopology>
                <iidm:bus id="B13" name="Bus 13      " v="115.54180000000001" angle="-15.1562"/>
            </iidm:busBreakerTopology>
            <iidm:load id="B13-L1 " loadType="UNDEFINED" p0="13.5" q0="5.8" bus="B13" connectableBus="B13"/>
        </iidm:voltageLevel>
    </iidm:substation>
    <iidm:substation id="S14">
        <iidm:voltageLevel id="VL14" nominalV="110.0" topologyKind="BUS_BREAKER">
            <iidm:busBreakerTopology>
                <iidm:bus id="B14" name="Bus 14      " v="113.90830000000001" angle="-16.0336"/>
            </iidm:busBreakerTopology>
            <iidm:load id="B14-L1 " loadType="UNDEFINED" p0="14.9" q0="5.0" bus="B14" connectableBus="B14"/>
        </iidm:voltageLevel>
    </iidm:substation>
    <iidm:line id="L-1-2-1 " name="Bus 1_Bus 2_1 " r="31.008000000000003" x="94.67199999999998" b1="1.65E-5" b2="1.65E-5" voltageLevelId1="VL1" bus1="B1" connectableBus1="B1" voltageLevelId2="VL2" bus2="B2" connectableBus2="B2"/>
    <iidm:line id="L-1-5-1 " name="Bus 1_Bus 5_1 " r="86.44800000000001" x="356.8639999999999" b1="1.5375E-5" b2="1.5375E-5" voltageLevelId1="VL1" bus1="B1" connectableBus1="B1" voltageLevelId2="VL5" bus2="B5" connectableBus2="B5"/>
    <iidm:line id="L-2-3-1 " name="Bus 2_Bus 3_1 " r="75.184" x="316.752" b1="1.3687499999999999E-5" b2="1.3687499999999999E-5" voltageLevelId1="VL2" bus1="B2" connectableBus1="B2" voltageLevelId2="VL3" bus2="B3" connectableBus2="B3"/>
    <iidm:line id="L-2-4-1 " name="Bus 2_Bus 4_1 " r="92.976" x="282.112" b1="1.0625E-5" b2="1.0625E-5" voltageLevelId1="VL2" bus1="B2" connectableBus1="B2" voltageLevelId2="VL4" bus2="B4" connectableBus2="B4"/>
    <iidm:line id="L-2-5-1 " name="Bus 2_Bus 5_1 " r="91.12" x="278.208" b1="1.08125E-5" b2="1.08125E-5" voltageLevelId1="VL2" bus1="B2" connectableBus1="B2" voltageLevelId2="VL5" bus2="B5" connectableBus2="B5"/>
    <iidm:line id="L-3-4-1 " name="Bus 3_Bus 4_1 " r="107.21599999999998" x="273.64799999999997" b1="4.0E-6" b2="4.0E-6" voltageLevelId1="VL3" bus1="B3" connectableBus1="B3" voltageLevelId2="VL4" bus2="B4" connectableBus2="B4"/>
    <iidm:line id="L-4-5-1 " name="Bus 4_Bus 5_1 " r="21.36" x="67.376" voltageLevelId1="VL4" bus1="B4" connectableBus1="B4" voltageLevelId2="VL5" bus2="B5" connectableBus2="B5"/>
    <iidm:line id="L-6-11-1 " name="Bus 6_Bus 11_1 " r="11.492579999999998" x="24.066899999999997" voltageLevelId1="VL6" bus1="B6" connectableBus1="B6" voltageLevelId2="VL11" bus2="B11" connectableBus2="B11"/>
    <iidm:line id="L-6-12-1 " name="Bus 6_Bus 12_1 " r="14.87211" x="30.95301" voltageLevelId1="VL6" bus1="B6" connectableBus1="B6" voltageLevelId2="VL12" bus2="B12" connectableBus2="B12"/>
    <iidm:line id="L-6-13-1 " name="Bus 6_Bus 13_1 " r="8.004150000000001" x="15.762669999999998" voltageLevelId1="VL6" bus1="B6" connectableBus1="B6" voltageLevelId2="VL13" bus2="B13" connectableBus2="B13"/>
    <iidm:line id="L-9-10-1 " name="Bus 9_Bus 10_1 " r="3.8490100000000003" x="10.2245" voltageLevelId1="VL8-9" bus1="B9" connectableBus1="B9" voltageLevelId2="VL10" bus2="B10" connectableBus2="B10"/>
    <iidm:line id="L-9-14-1 " name="Bus 9_Bus 14_1 " r="15.380310000000001" x="32.71598" voltageLevelId1="VL8-9" bus1="B9" connectableBus1="B9" voltageLevelId2="VL14" bus2="B14" connectableBus2="B14"/>
    <iidm:line id="L-10-11-1 " name="Bus 10_Bus 11_1 " r="9.928049999999999" x="23.240469999999995" voltageLevelId1="VL10" bus1="B10" connectableBus1="B10" voltageLevelId2="VL11" bus2="B11" connectableBus2="B11"/>
    <iidm:line id="L-12-13-1 " name="Bus 12_Bus 13_1 " r="26.73132" x="24.18548" voltageLevelId1="VL12" bus1="B12" connectableBus1="B12" voltageLevelId2="VL13" bus2="B13" connectableBus2="B13"/>
    <iidm:line id="L-13-14-1 " name="Bus 13_Bus 14_1 " r="20.682529999999996" x="42.110420000000005" voltageLevelId1="VL13" bus1="B13" connectableBus1="B13" voltageLevelId2="VL14" bus2="B14" connectableBus2="B14"/>
    <iidm:area id="A1" name="area 1-5    " areaType="ControlArea" interchangeTarget="0.0">
        <iidm:voltageLevelRef id="VL1"/>
        <iidm:voltageLevelRef id="VL2"/>
        <iidm:voltageLevelRef id="VL3"/>
        <iidm:voltageLevelRef id="VL4"/>
        <iidm:voltageLevelRef id="VL5"/>
        <iidm:areaBoundary ac="true" type="terminalRef" id="T-5-6-1 " side="ONE"/>
        <iidm:areaBoundary ac="true" type="terminalRef" id="T-4-9-8-1 " side="ONE"/>
    </iidm:area>
    <iidm:area id="A2" name="area 6-14   " areaType="ControlArea" interchangeTarget="0.0">
        <iidm:voltageLevelRef id="VL6"/>
        <iidm:voltageLevelRef id="VL8-9"/>
        <iidm:voltageLevelRef id="VL10"/>
        <iidm:voltageLevelRef id="VL11"/>
        <iidm:voltageLevelRef id="VL12"/>
        <iidm:voltageLevelRef id="VL13"/>
        <iidm:voltageLevelRef id="VL14"/>
        <iidm:areaBoundary ac="true" type="terminalRef" id="T-5-6-1 " side="TWO"/>
        <iidm:areaBoundary ac="true" type="terminalRef" id="T-4-9-8-1 " side="TWO"/>
        <iidm:areaBoundary ac="true" type="terminalRef" id="T-4-9-8-1 " side="THREE"/>
    </iidm:area>
    <iidm:extension id="VL1">
        <slt:slackTerminal id="B1-G1 "/>
    </iidm:extension>
</iidm:network>
